FoamFile
{
    version     2.0;
    format      ascii;
    class       dictionary;
    location    "constant";
    object      waveCurConditions;
}

// Wave properties

head_ang	-1.0471975511965976;
steepness	0.016666666666666666;
wavelength	6.0;
currentspeed	0.0;
waterdepth	3.0;
v0              3.0; // damping parameter
xdamp	72.0;
Lxdamp	18.0;
ydamp	42.0;
Lydamp	12.0;
xsponge	12.0;
Lsponge	12.0;
xc	6.0;
R0	0.5;
rampperiod	3.0;
