/*--------------------------------*- C++ -*----------------------------------*\
  =========                 |
  \\      /  F ield         | OpenFOAM: The Open Source CFD Toolbox
   \\    /   O peration     | Website:  https://openfoam.org
    \\  /    A nd           | Version:  11
     \\/     M anipulation  |
\*---------------------------------------------------------------------------*/
FoamFile
{
    format      ascii;
    class       dictionary;
    location    "system";
    object      decomposeParDict;
}
// * * * * * * * * * * * * * * * * * * * * * * * * * * * * * * * * * * * * * //

numberOfSubdomains	48;

method scotch;
/*
method          hierarchical;

hierarchicalCoeffs
{
n		(8 6 1) ;
    delta   0.001;
    order   yxz;
}
*/

/* method simple;

coeffs
{
    n		(8 6 1) ;
} */

// ************************************************************************* //
