/*--------------------------------*- C++ -*----------------------------------*\
| =========                 |                                                 |
| \\      /  F ield         | OpenFOAM: The Open Source CFD Toolbox           |
|  \\    /   O peration     | Version:  v2412                                 |
|   \\  /    A nd           | Website:  www.openfoam.com                      |
|    \\/     M anipulation  |                                                 |
\*---------------------------------------------------------------------------*/
FoamFile
{
    version     2.0;
    format      ascii;
    class       dictionary;
    object      topoSetDict;
}
// * * * * * * * * * * * * * * * * * * * * * * * * * * * * * * * * * * * * * //
boxstart	0;
boxend	72.0;
ybox	43.2;
zbox	1.5;


actions
(
    {
        name    c1;
        type    cellSet;
        action  new;
        source  boxToCell;
        box     ($boxstart -$ybox -$zbox) ($boxend $ybox 0);
    }
);


// ************************************************************************* //
