/*--------------------------------*- C++ -*----------------------------------*\
| =========                 |                                                 |
| \\      /  F ield         | OpenFOAM: The Open Source CFD Toolbox           |
|  \\    /   O peration     | Version:  2412                                  |
|   \\  /    A nd           | Website:  www.openfoam.com                      |
|    \\/     M anipulation  |                                                 |
\*---------------------------------------------------------------------------*/
FoamFile
{
    version     2.0;
    format      ascii;
    arch        "LSB;label=32;scalar=64";
    class       extendedFeatureEdgeMesh;
    location    "constant/extendedFeatureEdgeMesh";
    object      DTC_moved.extendedFeatureEdgeMesh;
}
// * * * * * * * * * * * * * * * * * * * * * * * * * * * * * * * * * * * * * //

// points

619
(
(37.2911 -2.23619 -0.0895522)
(36.8426 -1.39092 -0.227808)
(35.7652 1.19156 0)
(37.3606 -2.35671 -0.0157109)
(37.3527 -2.34862 -0.0172531)
(36.4927 -1.13327 -0.226551)
(36.1445 -0.819882 -0.226551)
(36.3128 -0.970594 -0.226551)
(36.9943 -1.97707 -0.0846297)
(37.3295 -2.302 -0.135923)
(36.7933 -1.43451 -0.227808)
(36.794 -1.43541 -0.227808)
(36.7926 -1.43361 -0.227808)
(37.3233 -2.30855 -0.158697)
(37.3212 -2.30488 -0.158697)
(37.3336 -2.30751 -0.162608)
(37.3318 -2.30442 -0.162608)
(37.3272 -2.31121 -0.160351)
(36.7371 -0.992168 -0.226551)
(36.8477 -1.40307 -0.227808)
(37.0009 -1.6693 -0.226551)
(37.2171 -1.84845 -0.0846297)
(36.8477 -1.40309 -0.227808)
(36.8473 -1.40206 -0.227808)
(36.8482 -1.40413 -0.227808)
(37.3543 -2.3478 -0.017406)
(37.3193 -2.29893 -0.159886)
(37.3254 -2.31223 -0.158697)
(37.3325 -2.30567 -0.162608)
(37.3315 -2.30383 -0.162608)
(37.3304 -2.302 -0.162608)
(37.33 -2.30133 -0.162608)
(37.3454 -2.34115 -0.0186815)
(36.1553 -0.837305 -0.226089)
(36.1594 -0.83441 -0.226551)
(36.3281 -0.994805 -0.225935)
(36.3331 -0.987905 -0.226551)
(36.4819 -1.12262 -0.226551)
(36.471 -1.11204 -0.226551)
(36.477 -1.10779 -0.227094)
(36.951 -1.70675 -0.226489)
(36.9472 -1.70029 -0.226551)
(36.9547 -1.71314 -0.226424)
(37.0199 -2.00679 -0.0798841)
(37.0078 -1.9926 -0.0821464)
(37.0243 -2.00401 -0.0806154)
(37.0168 -1.99739 -0.0815963)
(37.0094 -1.9907 -0.0825915)
(37.0019 -1.98393 -0.0836023)
(37.329 -2.30196 -0.13596)
(37.3247 -2.2964 -0.136076)
(36.6371 -1.25403 -0.227751)
(36.6197 -1.22386 -0.227808)
(36.7933 -1.43449 -0.227808)
(36.7853 -1.42396 -0.227808)
(37.2912 -2.23646 -0.0844925)
(37.2911 -2.23626 -0.0870104)
(37.3564 -2.34944 -0.0169142)
(37.3551 -2.34707 -0.0173258)
(37.3295 -2.30218 -0.135933)
(37.3296 -2.30182 -0.135915)
(36.1013 -0.974286 -0.103537)
(36.0773 -0.932707 -0.110294)
(35.7656 1.19067 -0.000538285)
(35.7661 1.18978 -0.0011174)
(36.6398 -0.533872 -0.226551)
(36.645 -0.554032 -0.226551)
(36.7333 -0.977444 -0.226551)
(36.7296 -0.962697 -0.226551)
(36.7229 -0.965824 -0.227094)
(37.0046 -1.67578 -0.226489)
(37.0083 -1.68219 -0.226424)
(37.0074 -1.68293 -0.226551)
(37.2238 -1.86789 -0.0821464)
(37.23 -1.88551 -0.0798841)
(37.2234 -1.87812 -0.0815963)
(37.2214 -1.86831 -0.0825915)
(37.3284 -2.29427 -0.136076)
(37.3311 -2.30071 -0.13596)
(37.3311 -2.30074 -0.135899)
(37.3308 -2.30017 -0.135923)
(37.329 -2.29602 -0.1359)
(36.7795 -0.546585 -0.107938)
(36.7712 -0.532078 -0.110294)
(36.7952 -0.573658 -0.103537)
(36.7874 -0.560149 -0.105732)
(36.8657 -1.43417 -0.227792)
(37.3599 -2.35066 -0.0165079)
(37.3613 -2.35308 -0.0161068)
(37.3627 -2.35553 -0.0157109)
(37.3571 -2.34589 -0.0173258)
(37.3585 -2.34826 -0.0169142)
(37.2931 -2.23505 -0.0913243)
(37.2932 -2.23512 -0.0929928)
(37.3308 -2.30018 -0.162868)
(37.3309 -2.30046 -0.162729)
(37.3311 -2.30074 -0.162608)
(34.6259 2.37185 0)
(34.6265 2.36989 0)
(34.6766 2.19101 -2.79082e-17)
(34.679 2.18075 -1.17738e-17)
(34.6815 2.17047 -3.48852e-18)
(34.6838 2.16019 -4.36066e-19)
(34.6862 2.1499 0)
(34.6597 2.25705 3.73926e-17)
(34.662 2.2482 5.58164e-17)
(34.6526 2.28276 6.97705e-18)
(34.6573 2.26573 2.35475e-17)
(34.6477 2.29976 8.72131e-19)
(34.6452 2.30839 1.09016e-19)
(34.6426 2.31719 0)
(34.6658 2.23388 2.31115e-17)
(34.6695 2.21965 3.48852e-18)
(34.6731 2.20539 -1.09016e-17)
(34.6931 2.11841 1.17738e-17)
(34.6954 2.10791 0)
(34.6908 2.12891 1.04656e-17)
(34.6885 2.13941 3.92459e-18)
(34.716 2.00918 -1.05528e-15)
(34.719 1.9951 0)
(34.7102 2.03732 -5.69851e-15)
(34.7131 2.02325 -3.37689e-15)
(34.7072 2.0514 -6.75378e-15)
(34.7043 2.06547 -5.69851e-15)
(34.6984 2.09361 -1.05528e-15)
(34.7014 2.07954 -3.37689e-15)
(34.6954 2.10767 0)
(34.7542 1.83164 5.3309e-17)
(34.7552 1.82672 5.58164e-17)
(34.752 1.84149 3.52123e-17)
(34.7531 1.83657 4.6223e-17)
(34.7509 1.84641 2.09311e-17)
(34.7498 1.85133 4.03361e-18)
(34.7477 1.86118 -3.49943e-17)
(34.7487 1.85625 -1.48262e-17)
(34.7466 1.8661 -5.58164e-17)
(34.7223 1.97896 0)
(34.7257 1.96282 0)
(34.7361 1.91444 -8.72131e-19)
(34.7395 1.89832 -6.97705e-18)
(34.743 1.88221 -2.35475e-17)
(34.7291 1.94669 0)
(34.7326 1.93056 0)
(34.7854 1.69093 -1.04656e-17)
(34.7857 1.68974 -7.35861e-18)
(34.7859 1.68855 -3.92459e-18)
(34.7862 1.68736 -1.14467e-18)
(34.7865 1.68617 0)
(34.7843 1.69569 0)
(34.7846 1.6945 -8.01271e-18)
(34.7851 1.69212 -1.22643e-17)
(34.7849 1.69331 -1.17738e-17)
(34.777 1.72843 1.3848e-13)
(34.7807 1.71206 6.92298e-14)
(34.7734 1.74481 1.3795e-13)
(34.7697 1.76119 1.3742e-13)
(34.7589 1.81034 2.1519e-14)
(34.7625 1.79395 6.87379e-14)
(34.7661 1.77757 1.15957e-13)
(34.8021 1.61901 -7.28404e-15)
(34.8062 1.60225 -6.14547e-15)
(34.8145 1.56878 -1.12636e-15)
(34.8187 1.55206 2.79082e-17)
(34.8103 1.58551 -3.63853e-15)
(34.7942 1.65257 -3.64202e-15)
(34.7981 1.63578 -6.14591e-15)
(34.7903 1.66936 -1.13813e-15)
(34.8868 1.30968 -2.72105e-16)
(34.8935 1.28851 5.58164e-17)
(34.8737 1.35213 -5.81942e-13)
(34.8802 1.33089 -5.58164e-16)
(34.8674 1.37341 -1.16333e-12)
(34.8612 1.39474 -9.81556e-13)
(34.8491 1.43744 -1.8177e-13)
(34.8551 1.41607 -5.81663e-13)
(34.8432 1.45886 0)
(34.8307 1.50541 3.48852e-18)
(34.9719 1.06484 -1.47988e-13)
(34.9825 1.03756 0)
(34.9616 1.09189 -4.7356e-13)
(34.9515 1.11901 -7.99133e-13)
(34.9415 1.14653 -9.47121e-13)
(34.9318 1.17396 -7.99141e-13)
(34.9129 1.22905 -1.48011e-13)
(34.9223 1.20147 -4.73581e-13)
(34.9038 1.25668 0)
(35.0613 0.854222 -2.79082e-17)
(35.0743 0.827215 -3.48852e-18)
(35.0875 0.800313 0)
(34.9898 1.01916 0)
(35.001 0.991365 -1.14772e-15)
(35.0124 0.96367 -2.40011e-15)
(35.0242 0.936095 1.46518e-15)
(35.0362 0.908656 5.33047e-15)
(35.0486 0.881365 2.65128e-15)
(35.0876 0.800135 0)
(35.1908 0.603637 0)
(35.2066 0.575677 0)
(35.1755 0.631096 0)
(35.1605 0.658674 0)
(35.1307 0.715108 2.35475e-17)
(35.1454 0.686996 0)
(35.1018 0.771732 7.06426e-17)
(35.1161 0.743371 6.27934e-17)
(35.2206 0.551194 1.04656e-17)
(35.2346 0.526757 8.37246e-17)
(34.6215 2.38603 5.45082e-20)
(34.6217 2.38554 0)
(34.6211 2.38751 3.48852e-18)
(34.6212 2.38702 1.47172e-18)
(34.6209 2.38801 6.81353e-18)
(34.6206 2.38899 1.86963e-17)
(34.6207 2.3885 1.17738e-17)
(35.2855 0.438577 8.02361e-17)
(35.3365 0.350397 7.67475e-17)
(35.4892 0.0858583 6.6282e-17)
(35.5401 -0.00232137 6.27934e-17)
(35.591 -0.0905011 5.93049e-17)
(35.6419 -0.178681 5.58164e-17)
(35.7377 -0.344659 5.1979e-15)
(37.0673 -2.42372 2.79082e-17)
(37.0788 -2.43106 7.84918e-18)
(37.0906 -2.43802 -6.97705e-18)
(37.1026 -2.44455 -1.13377e-17)
(37.1148 -2.45061 0)
(37.3566 -2.35255 -0.016502)
(37.3574 -2.35214 -0.0165794)
(37.1297 -2.09447 -0.0671846)
(37.1146 -2.07994 -0.0695568)
(37.1223 -2.0873 -0.0683586)
(36.15 -0.828728 -0.226327)
(36.1519 -0.827155 -0.226551)
(36.3205 -0.982759 -0.226258)
(36.3228 -0.979126 -0.226551)
(36.4847 -1.12036 -0.226841)
(36.6286 -1.23929 -0.227794)
(36.8529 -2.2124 9.80319e-15)
(36.863 -2.2252 8.37246e-17)
(36.843 -2.1995 3.12676e-14)
(36.8331 -2.18652 5.27478e-14)
(36.8233 -2.17348 6.25144e-14)
(36.804 -2.14721 0)
(36.8136 -2.16037 3.12572e-14)
(36.785 -2.12071 0)
(36.7945 -2.13399 0)
(36.8748 -2.23993 -2.35475e-17)
(36.8809 -2.24743 -4.08812e-17)
(36.8871 -2.25495 -4.18623e-17)
(36.8933 -2.26243 -3.23779e-17)
(36.8996 -2.26983 -1.83148e-17)
(36.9119 -2.28415 0)
(36.952 -2.32745 1.64833e-16)
(36.9659 -2.34124 3.34898e-16)
(36.9383 -2.31321 1.04656e-16)
(36.9249 -2.29871 7.58754e-17)
(36.9959 -2.36919 -3.00885e-17)
(37.0063 -2.37804 -2.79082e-17)
(36.9857 -2.36005 1.74426e-17)
(36.9757 -2.35071 1.33e-16)
(37.0226 -2.3912 0)
(37.0334 -2.39957 4.36066e-19)
(37.0446 -2.40792 3.48852e-18)
(37.056 -2.41604 1.17738e-17)
(37.1595 -2.4673 -1.14467e-18)
(37.1662 -2.46896 0)
(37.1529 -2.46545 -3.92459e-18)
(37.1464 -2.46341 -7.35861e-18)
(37.14 -2.46118 -1.04656e-17)
(37.1274 -2.45621 -1.17738e-17)
(37.2149 -2.47519 0)
(37.2313 -2.47562 0)
(37.1986 -2.47406 0)
(37.1905 -2.47317 0)
(37.1824 -2.47204 0)
(37.1743 -2.47065 0)
(37.341 -2.46906 0)
(37.3592 -2.46654 -2.09311e-17)
(37.3772 -2.46372 0)
(37.3228 -2.47121 -2.79082e-17)
(37.3046 -2.47295 -5.58164e-17)
(37.2863 -2.47426 -4.70951e-17)
(37.268 -2.47513 -2.79082e-17)
(37.2497 -2.47559 -8.72131e-18)
(36.0856 -0.947213 -0.107938)
(36.0935 -0.960777 -0.105732)
(36.5984 -1.83195 -1.19918e-18)
(36.6156 -1.86029 0)
(36.5813 -1.80332 -4.36066e-18)
(36.53 -1.71646 -1.90779e-17)
(36.547 -1.74549 -1.39541e-17)
(36.5641 -1.77447 -8.83033e-18)
(36.4964 -1.6586 -2.6709e-17)
(36.5131 -1.68747 -2.35475e-17)
(36.4798 -1.62993 -2.79082e-17)
(36.6628 -1.93688 1.85162e-14)
(36.6724 -1.9521 1.09889e-14)
(36.6821 -1.9673 3.45102e-15)
(36.6344 -1.891 1.09679e-14)
(36.6438 -1.90632 1.85084e-14)
(36.6533 -1.92161 2.19358e-14)
(36.6918 -1.98245 0)
(36.6249 -1.87566 3.42748e-15)
(36.7118 -2.01325 2.3094e-15)
(36.7219 -2.02858 3.86965e-15)
(36.7321 -2.04387 4.57694e-15)
(36.7424 -2.05912 3.86223e-15)
(36.7527 -2.0743 2.29196e-15)
(36.7018 -1.99787 7.38695e-16)
(36.7631 -2.08942 7.26921e-16)
(36.7736 -2.1045 2.79082e-17)
(36.7764 -2.10856 1.17738e-17)
(36.7793 -2.11262 3.48852e-18)
(36.7821 -2.11667 4.36066e-19)
(37.2917 -2.23724 -0.0795462)
(37.2914 -2.23679 -0.0820028)
(37.292 -2.23781 -0.077127)
(37.2929 -2.23929 -0.0724194)
(37.2924 -2.23849 -0.0747499)
(37.2934 -2.2402 -0.0701401)
(37.294 -2.24121 -0.0679166)
(37.2946 -2.24232 -0.0657534)
(37.4077 -2.45793 -1.9623e-17)
(37.4178 -2.45578 0)
(37.3874 -2.4619 -2.74721e-17)
(37.3976 -2.45997 -3.13967e-17)
(37.2911 -2.2363 -0.0929928)
(37.2911 -2.23623 -0.0913243)
(37.2911 -2.23634 -0.0930662)
(37.2913 -2.23652 -0.0947772)
(37.3293 -2.30239 -0.13594)
(37.3294 -2.30254 -0.135954)
(37.4189 -2.45519 0)
(37.3296 -2.30185 -0.135915)
(36.7946 -1.4363 -0.227808)
(36.804 -1.44881 -0.227808)
(36.7919 -1.4327 -0.227808)
(36.3283 -1.3676 9.71162e-15)
(36.3384 -1.38509 9.06232e-15)
(36.3081 -1.33262 1.10102e-14)
(36.3182 -1.35011 1.03609e-14)
(36.298 -1.31513 1.16595e-14)
(36.3788 -1.45504 6.46511e-15)
(36.3889 -1.47253 5.81581e-15)
(36.3586 -1.42006 7.76371e-15)
(36.3687 -1.43755 7.11441e-15)
(36.3485 -1.40257 8.41301e-15)
(36.2879 -1.29764 1.23088e-14)
(35.9446 -0.703016 3.43851e-14)
(35.9547 -0.720504 3.37358e-14)
(35.9244 -0.668038 3.56837e-14)
(35.9345 -0.685527 3.50344e-14)
(35.9648 -0.737993 3.30865e-14)
(36.0052 -0.807949 3.04893e-14)
(36.0153 -0.825438 2.984e-14)
(35.985 -0.772971 3.17879e-14)
(35.9951 -0.79046 3.11386e-14)
(35.9749 -0.755482 3.24372e-14)
(35.8336 -0.510637 4.15274e-14)
(35.8437 -0.528126 4.08781e-14)
(35.9043 -0.63306 3.69823e-14)
(35.9143 -0.650549 3.6333e-14)
(37.3292 -2.31006 -0.136928)
(37.3272 -2.31121 -0.138157)
(37.3223 -2.31405 -0.151856)
(37.3229 -2.31367 -0.154359)
(37.322 -2.31418 -0.149254)
(37.3292 -2.31006 -0.161579)
(34.6336 2.37858 -1.71156e-17)
(34.6322 2.38009 -1.63933e-17)
(34.6364 2.37557 -2.09311e-17)
(34.635 2.37707 -1.86554e-17)
(34.628 2.38461 -1.995e-17)
(34.6267 2.38612 -2.33159e-17)
(34.6253 2.38763 -2.79082e-17)
(34.7739 2.23553 -1.17738e-17)
(34.7663 2.2428 -2.79082e-17)
(34.7894 2.22111 -4.36066e-19)
(34.7816 2.22831 -3.48852e-18)
(34.7971 2.21394 0)
(34.6988 2.30946 -3.48852e-18)
(34.6865 2.32215 -1.17738e-17)
(34.7175 2.29047 -5.45082e-20)
(34.7112 2.29685 -4.36066e-19)
(34.6803 2.32864 -1.86963e-17)
(34.674 2.33528 -2.79082e-17)
(34.724 2.28399 0)
(34.745 2.26327 -3.48852e-18)
(34.7345 2.27356 -4.36066e-19)
(34.7556 2.25304 -1.17738e-17)
(34.8289 2.18497 0)
(34.8209 2.19218 0)
(34.805 2.20666 0)
(34.8129 2.19941 0)
(34.8397 2.17518 -1.06705e-15)
(34.829 2.1848 -2.79082e-17)
(34.8933 2.1273 -3.37689e-15)
(34.8826 2.13687 -5.69851e-15)
(34.9148 2.10815 0)
(34.904 2.11773 -1.05528e-15)
(34.8504 2.16559 -3.38038e-15)
(34.8611 2.15601 -5.69894e-15)
(34.8719 2.14644 -6.75378e-15)
(35.035 1.99933 4.36066e-19)
(35.0313 2.00274 1.47172e-18)
(35.0424 1.99253 0)
(35.0387 1.99593 5.45082e-20)
(35.0164 2.01633 1.86963e-17)
(35.0127 2.01973 2.79082e-17)
(35.0238 2.00954 6.81353e-18)
(35.0201 2.01294 1.17738e-17)
(35.0276 2.00614 3.48852e-18)
(34.9761 2.05302 4.36066e-19)
(34.9638 2.06408 0)
(34.927 2.09716 0)
(34.9393 2.08615 0)
(34.9516 2.07512 0)
(34.9883 2.04194 3.48852e-18)
(35.0005 2.03084 1.17738e-17)
(35.1423 1.90099 1.86963e-17)
(35.1414 1.90182 2.79082e-17)
(35.1432 1.90016 1.17738e-17)
(35.1476 1.89602 5.45082e-20)
(35.1467 1.89685 4.36066e-19)
(35.1485 1.89519 0)
(35.1441 1.89933 6.81353e-18)
(35.1458 1.89768 1.47172e-18)
(35.1449 1.89851 3.48852e-18)
(35.0919 1.94722 1.37364e-13)
(35.0796 1.95855 1.15901e-13)
(35.0672 1.96988 6.86821e-14)
(35.0548 1.98121 2.14631e-14)
(35.1043 1.93589 1.37908e-13)
(35.1167 1.92454 1.38453e-13)
(35.129 1.91319 6.92298e-14)
(35.1612 1.88347 -1.13377e-15)
(35.2238 1.82425 -3.6176e-15)
(35.2114 1.83618 -6.11844e-15)
(35.2486 1.80028 0)
(35.2362 1.81229 -1.122e-15)
(35.1738 1.8717 -3.62807e-15)
(35.1989 1.84807 -7.25613e-15)
(35.1863 1.85991 -6.12236e-15)
(35.4093 1.63639 -5.58164e-16)
(35.3942 1.65261 -5.8197e-13)
(35.4244 1.62008 -2.82571e-16)
(35.4394 1.60369 -2.79082e-17)
(35.3326 1.71665 -1.81767e-13)
(35.317 1.73246 2.79082e-17)
(35.3636 1.6848 -9.81602e-13)
(35.3482 1.70077 -5.81687e-13)
(35.3789 1.66875 -1.16338e-12)
(35.283 1.76652 1.39541e-17)
(35.4812 1.55714 -1.47983e-13)
(35.4618 1.57887 0)
(35.5757 1.44643 -4.73546e-13)
(35.5572 1.46873 -7.99109e-13)
(35.5939 1.42399 -1.47983e-13)
(35.6122 1.40115 0)
(35.5004 1.53528 -4.73546e-13)
(35.5384 1.49114 -9.47093e-13)
(35.5195 1.51328 -7.99109e-13)
(35.6613 1.33828 -2.3722e-15)
(35.643 1.36205 -1.18959e-15)
(35.6245 1.38565 -2.79082e-17)
(35.7485 1.21645 1.04656e-17)
(35.7316 1.24121 0)
(35.6793 1.31432 1.43727e-15)
(35.697 1.29016 5.24674e-15)
(35.7145 1.26579 2.62337e-15)
(35.7653 1.1914 -5.58164e-17)
(35.9002 0.97614 2.79082e-17)
(35.8839 1.00379 2.04951e-17)
(35.8677 1.03073 3.13967e-17)
(35.8514 1.05754 4.75312e-17)
(35.8344 1.0848 5.58164e-17)
(35.8174 1.11161 3.83738e-17)
(35.8002 1.13833 0)
(35.7828 1.16494 -3.83738e-17)
(35.9144 0.951786 -1.74426e-17)
(35.9285 0.927385 0)
(34.6246 2.38839 -1.39541e-17)
(34.6239 2.38914 0)
(34.6232 2.3899 3.48852e-17)
(36.0304 0.751026 1.39541e-17)
(35.9795 0.839206 6.97705e-18)
(36.1322 0.574666 2.79082e-17)
(36.0813 0.662846 2.09311e-17)
(36.1831 0.486487 3.48852e-17)
(36.3358 0.221948 5.58164e-17)
(36.2849 0.310127 4.88393e-17)
(36.234 0.398307 4.18623e-17)
(36.5275 -0.110008 8.25525e-14)
(36.4317 0.0559696 1.0326e-14)
(37.568 -2.14864 -2.74721e-17)
(37.5674 -2.135 -5.58164e-17)
(37.5681 -2.1623 -1.74426e-17)
(37.5678 -2.17596 -1.26459e-17)
(37.5669 -2.18959 0)
(36.6424 -0.543925 -0.226551)
(36.7299 -0.9788 -0.226841)
(36.8567 -1.41871 -0.227804)
(37.0042 -1.6762 -0.226551)
(37.4976 -1.85881 -2.79082e-17)
(37.4916 -1.84368 9.76046e-15)
(37.4854 -1.82859 3.12676e-14)
(37.4791 -1.81355 5.27696e-14)
(37.4727 -1.79857 6.25423e-14)
(37.4662 -1.78362 3.12851e-14)
(37.4596 -1.76872 2.79082e-17)
(37.4529 -1.75385 1.04656e-17)
(37.4461 -1.73902 -2.79082e-17)
(37.5045 -1.87642 1.29511e-16)
(37.5079 -1.88546 1.59982e-16)
(37.5113 -1.89457 1.63961e-16)
(37.5147 -1.9037 1.457e-16)
(37.518 -1.91279 1.09452e-16)
(37.5242 -1.93062 0)
(37.5467 -2.0059 1.11633e-16)
(37.5417 -1.98704 8.24164e-17)
(37.5362 -1.96804 8.72131e-17)
(37.5303 -1.94916 7.63115e-17)
(37.5583 -2.0593 0)
(37.5559 -2.04588 -1.78787e-17)
(37.55 -2.01913 5.10197e-17)
(37.5531 -2.03248 3.48852e-18)
(37.5616 -2.08001 8.37246e-17)
(37.5634 -2.09358 3.44492e-17)
(37.5651 -2.10745 3.48852e-18)
(37.5664 -2.12134 -2.22393e-17)
(37.5571 -2.24328 -2.79082e-16)
(37.559 -2.23662 -1.88108e-16)
(37.5607 -2.22999 -1.21662e-16)
(37.5622 -2.22335 -7.54939e-17)
(37.5655 -2.20329 -1.61344e-17)
(37.5635 -2.2167 -4.53508e-17)
(37.5303 -2.303 0)
(37.5382 -2.28855 -2.79082e-17)
(37.5453 -2.27387 -5.58164e-17)
(37.5486 -2.26639 -8.28525e-17)
(37.5517 -2.25882 -1.25587e-16)
(37.5545 -2.25112 -1.89252e-16)
(37.4471 -2.42342 0)
(37.4586 -2.40915 3.83738e-17)
(37.4698 -2.39469 5.58164e-17)
(37.4808 -2.38001 2.79082e-17)
(37.4914 -2.36508 0)
(37.5017 -2.34991 -7.84918e-18)
(37.5116 -2.33449 -2.09311e-17)
(37.5211 -2.31884 -2.35475e-17)
(37.3309 -2.30016 -0.135947)
(37.3053 -1.46207 -5.58164e-17)
(37.2893 -1.43306 -3.75016e-17)
(37.2731 -1.40388 -2.44197e-17)
(37.2567 -1.37461 -1.65705e-17)
(37.2069 -1.28694 -2.44197e-17)
(37.1902 -1.25799 -3.75016e-17)
(37.2402 -1.34532 -1.39541e-17)
(37.2235 -1.31607 -1.65705e-17)
(37.373 -1.58916 8.37246e-17)
(37.3647 -1.57317 3.46716e-15)
(37.3564 -1.55721 1.09923e-14)
(37.348 -1.54129 1.85332e-14)
(37.3396 -1.5254 2.19638e-14)
(37.3311 -1.50953 1.8531e-14)
(37.3225 -1.49369 1.09749e-14)
(37.3139 -1.47787 3.40829e-15)
(37.43 -1.70438 6.95961e-16)
(37.4221 -1.68781 2.29545e-15)
(37.4378 -1.72102 -5.58164e-17)
(37.4141 -1.67129 3.88447e-15)
(37.406 -1.65478 4.60485e-15)
(37.3979 -1.63832 3.88665e-15)
(37.3897 -1.62189 2.31289e-15)
(37.3814 -1.60551 7.5483e-16)
(37.4441 -1.73451 -1.26459e-17)
(37.442 -1.73001 -1.04656e-17)
(37.4399 -1.72551 -2.39836e-17)
(36.8548 -1.4195 -0.227808)
(37.2931 -2.23508 -0.0870104)
(37.2934 -2.2355 -0.0791392)
(37.2931 -2.23501 -0.0895522)
(37.2933 -2.23528 -0.0844925)
(37.2944 -2.23732 -0.0747499)
(37.2949 -2.23811 -0.0724194)
(37.2934 -2.23561 -0.0820028)
(37.2937 -2.23606 -0.0795462)
(37.2954 -2.23902 -0.0701401)
(37.4404 -2.43133 1.13377e-17)
(37.4199 -2.4546 -2.79082e-17)
(37.4268 -2.44691 -7.84918e-18)
(37.4336 -2.43916 6.97705e-18)
(37.2941 -2.23677 -0.101292)
(37.2939 -2.23631 -0.0997144)
(36.8468 -1.40102 -0.227808)
(36.8477 -1.40305 -0.227808)
(36.8486 -1.40516 -0.227808)
(36.8459 -1.39885 -0.227808)
(37.0318 -1.77606 -0.227808)
(37.0147 -1.74609 -0.227808)
(37.0361 -1.78364 -0.227808)
(37.0727 -1.05441 1.28517e-14)
(37.0525 -1.01943 1.54332e-14)
(37.0122 -0.949479 2.05962e-14)
(36.992 -0.914501 2.31778e-14)
(37.0323 -0.984457 1.80147e-14)
(37.1737 -1.2293 -5.58164e-17)
(37.1535 -1.19432 2.52569e-15)
(37.1333 -1.15935 5.1072e-15)
(36.6486 -0.319876 6.70634e-14)
(36.6285 -0.284898 6.96449e-14)
(36.6083 -0.24992 7.22264e-14)
(36.5881 -0.214942 7.48079e-14)
(36.5679 -0.179964 7.73894e-14)
(36.5477 -0.144986 7.99709e-14)
(37.338 -2.30495 -0.136928)
(37.3359 -2.3062 -0.136163)
(37.3359 -2.3062 -0.162345)
(37.338 -2.30495 -0.161579)
(37.3342 -2.30718 -0.162541)
)

// edges

617
(
(4 32)
(33 6)
(6 34)
(35 7)
(7 36)
(5 37)
(37 38)
(39 5)
(40 41)
(42 40)
(43 44)
(44 8)
(45 8)
(46 8)
(47 48)
(48 8)
(49 50)
(51 52)
(53 54)
(0 55)
(56 0)
(55 56)
(3 57)
(57 58)
(9 59)
(60 9)
(61 62)
(63 64)
(65 66)
(67 18)
(68 67)
(18 69)
(20 70)
(70 71)
(20 72)
(21 73)
(73 74)
(21 75)
(76 21)
(77 78)
(79 80)
(81 80)
(82 83)
(84 85)
(85 82)
(1 19)
(19 86)
(87 88)
(88 89)
(90 91)
(91 87)
(92 93)
(94 95)
(95 96)
(3 225)
(225 4)
(3 226)
(226 25)
(0 325)
(325 326)
(10 333)
(333 334)
(335 54)
(12 335)
(53 11)
(334 11)
(19 577)
(22 593)
(594 595)
(595 22)
(594 596)
(1 596)
(593 1)
(577 24)
(24 19)
(19 23)
(1 23)
(597 598)
(599 598)
(597 599)
(97 98)
(99 100)
(100 101)
(102 103)
(101 102)
(104 105)
(106 107)
(107 104)
(108 106)
(109 108)
(110 109)
(105 111)
(111 112)
(113 99)
(112 113)
(114 115)
(116 114)
(103 117)
(117 116)
(118 119)
(120 121)
(121 118)
(122 120)
(123 122)
(124 125)
(125 123)
(126 124)
(115 126)
(127 128)
(129 130)
(130 127)
(131 129)
(132 131)
(133 134)
(135 133)
(134 132)
(119 136)
(136 137)
(138 139)
(139 140)
(140 135)
(137 141)
(142 138)
(141 142)
(143 144)
(144 145)
(146 147)
(145 146)
(148 149)
(150 143)
(149 151)
(151 150)
(152 153)
(153 148)
(154 152)
(155 154)
(128 156)
(157 158)
(156 157)
(158 155)
(159 160)
(161 162)
(160 163)
(163 161)
(164 165)
(147 166)
(166 164)
(165 159)
(167 168)
(169 170)
(170 167)
(171 169)
(172 171)
(173 174)
(175 173)
(174 172)
(162 176)
(176 175)
(177 178)
(179 177)
(180 179)
(181 180)
(182 181)
(183 184)
(185 183)
(184 182)
(168 185)
(186 187)
(187 188)
(189 190)
(190 191)
(192 193)
(191 192)
(193 194)
(194 186)
(178 189)
(188 195)
(196 197)
(198 196)
(199 198)
(200 201)
(201 199)
(202 203)
(203 200)
(195 202)
(204 205)
(197 204)
(206 207)
(208 209)
(210 208)
(211 212)
(212 210)
(205 213)
(213 214)
(215 216)
(217 218)
(216 217)
(218 219)
(220 221)
(221 222)
(223 224)
(222 223)
(32 3)
(227 228)
(228 229)
(229 227)
(230 6)
(33 230)
(231 6)
(34 231)
(232 7)
(35 232)
(233 7)
(36 233)
(234 39)
(5 234)
(5 38)
(235 52)
(51 235)
(42 41)
(236 237)
(238 236)
(239 238)
(240 239)
(241 242)
(242 240)
(243 244)
(244 241)
(237 245)
(245 246)
(246 247)
(247 248)
(249 250)
(248 249)
(43 8)
(45 46)
(251 252)
(253 251)
(254 253)
(250 254)
(255 256)
(257 255)
(252 258)
(258 257)
(256 259)
(259 260)
(260 261)
(262 220)
(261 262)
(263 264)
(265 263)
(266 265)
(267 266)
(268 267)
(224 268)
(269 270)
(271 269)
(272 271)
(273 272)
(274 273)
(264 274)
(275 276)
(276 277)
(278 275)
(279 278)
(280 279)
(281 280)
(282 281)
(270 282)
(62 283)
(284 61)
(283 284)
(285 286)
(287 285)
(288 289)
(289 290)
(290 287)
(291 292)
(292 288)
(293 291)
(294 295)
(295 296)
(297 298)
(298 299)
(299 294)
(296 300)
(301 297)
(286 301)
(302 303)
(303 304)
(305 306)
(304 305)
(300 307)
(307 302)
(308 309)
(306 308)
(310 311)
(309 310)
(311 312)
(312 243)
(313 314)
(315 313)
(316 317)
(318 316)
(317 315)
(319 318)
(320 319)
(58 3)
(321 322)
(323 324)
(277 323)
(324 321)
(326 327)
(327 328)
(329 330)
(322 331)
(332 9)
(60 332)
(336 337)
(338 339)
(340 338)
(339 336)
(341 342)
(343 344)
(345 343)
(344 341)
(337 345)
(346 340)
(347 348)
(349 350)
(350 347)
(348 351)
(352 353)
(354 355)
(355 352)
(356 354)
(357 358)
(359 360)
(360 349)
(351 356)
(361 362)
(363 364)
(365 363)
(13 17)
(17 366)
(367 368)
(369 370)
(370 367)
(371 372)
(372 373)
(374 375)
(376 377)
(378 376)
(377 374)
(379 380)
(381 382)
(382 379)
(383 384)
(380 383)
(385 381)
(386 387)
(388 386)
(375 388)
(387 385)
(389 390)
(391 378)
(392 391)
(390 392)
(393 394)
(395 396)
(397 398)
(398 395)
(399 393)
(400 399)
(401 400)
(396 401)
(402 403)
(404 405)
(405 402)
(406 407)
(408 409)
(410 408)
(409 406)
(403 410)
(411 412)
(413 397)
(414 413)
(415 414)
(412 415)
(416 411)
(417 416)
(407 417)
(418 419)
(420 418)
(421 422)
(423 421)
(424 420)
(425 426)
(426 424)
(422 425)
(427 428)
(428 429)
(430 404)
(429 430)
(431 427)
(432 431)
(419 433)
(433 432)
(434 423)
(435 436)
(437 438)
(438 435)
(439 434)
(440 441)
(441 439)
(436 440)
(442 443)
(444 442)
(445 444)
(446 447)
(448 449)
(450 448)
(449 446)
(443 450)
(447 451)
(451 437)
(452 453)
(454 455)
(456 454)
(457 456)
(458 452)
(459 460)
(455 459)
(460 458)
(453 445)
(461 462)
(462 463)
(2 464)
(464 465)
(466 461)
(467 466)
(465 468)
(468 467)
(463 457)
(64 2)
(469 2)
(470 471)
(471 472)
(472 473)
(473 474)
(474 475)
(475 476)
(477 469)
(476 477)
(478 470)
(479 478)
(480 481)
(481 482)
(483 484)
(484 479)
(485 486)
(486 483)
(487 485)
(488 489)
(490 487)
(489 490)
(491 492)
(492 488)
(493 494)
(495 493)
(496 495)
(497 496)
(65 498)
(498 66)
(69 499)
(499 18)
(18 68)
(19 500)
(500 86)
(20 71)
(20 501)
(501 72)
(502 503)
(503 504)
(504 505)
(505 506)
(506 507)
(507 508)
(508 509)
(509 510)
(511 502)
(512 511)
(513 512)
(514 513)
(515 514)
(516 515)
(21 74)
(76 75)
(517 518)
(518 519)
(520 516)
(519 520)
(521 522)
(523 517)
(524 523)
(522 524)
(525 521)
(526 525)
(527 526)
(528 527)
(494 528)
(529 530)
(530 531)
(531 532)
(533 497)
(534 533)
(532 534)
(535 536)
(536 537)
(538 539)
(539 540)
(540 529)
(537 538)
(541 542)
(543 544)
(544 545)
(545 546)
(546 547)
(547 548)
(548 535)
(542 543)
(549 77)
(79 81)
(550 551)
(551 552)
(552 553)
(554 555)
(556 557)
(557 554)
(553 556)
(558 559)
(560 561)
(561 562)
(562 563)
(559 560)
(563 564)
(564 565)
(565 550)
(566 567)
(568 566)
(567 569)
(570 571)
(569 570)
(572 573)
(573 558)
(571 572)
(574 575)
(510 574)
(575 576)
(576 568)
(578 579)
(579 580)
(578 581)
(582 583)
(584 585)
(583 586)
(89 90)
(587 541)
(588 589)
(590 587)
(589 590)
(93 580)
(591 592)
(94 96)
(331 588)
(600 601)
(602 603)
(604 602)
(601 604)
(605 606)
(606 607)
(608 609)
(610 611)
(609 610)
(611 612)
(613 491)
(612 613)
(83 84)
(614 615)
(616 617)
(618 616)
(15 618)
(27 13)
(15 28)
(28 16)
(16 29)
(29 30)
(13 15)
(15 17)
(30 31)
(14 14)
(16 15)
(31 16)
(17 27)
(4 3)
(3 25)
(10 10)
(10 11)
(11 10)
(10 12)
(12 10)
(26 14)
(22 22)
(22 23)
(23 22)
(22 24)
(24 22)
)

// concaveStart mixedStart nonFeatureStart
2 3 25
// internalStart flatStart openStart multipleStart
80 592 592 604
// normals

1120
(
(0.0291511 -0.159636 -0.986745)
(-0.0291511 0.159636 0.986745)
(-0.0116308 0.176274 0.984272)
(0.682466 0.58222 -0.441883)
(-0.0846145 0.12818 0.988135)
(-0.0822352 0.129859 0.988116)
(-0.0308949 0.165688 0.985694)
(0.0308949 -0.165688 -0.985694)
(0 0 0)
(0 0 0)
(0 0 -1)
(0 0 -1)
(0 0 -1)
(-0 -0 1)
(0.482554 0.317216 0.816404)
(0 0 0)
(0.583554 0.334218 0.74011)
(0 0 0)
(0 0 0)
(0 0 1)
(0 0 1)
(-0 0 1)
(0 0 1)
(0.642468 0.366934 0.672751)
(0.024392 0.014565 0.999596)
(0.0225315 0.0126517 0.999666)
(0.0220962 0.0111418 0.999694)
(0.0227502 0.0137065 0.999647)
(-0.359131 0.0525276 -0.931808)
(0.0100869 0.00597314 0.999931)
(-0.0222271 -0.0129521 0.999669)
(-0.0221708 -0.0128919 0.999671)
(-0.498968 0.866577 -0.00866582)
(-0.0104248 0.177973 0.98398)
(-0.485278 -0.322344 -0.812773)
(0.0650619 0.0667286 0.995648)
(0 0 -1)
(-0.716117 -0.465684 -0.519917)
(0.0469298 0.0550274 0.997381)
(0 0 -1)
(0.0634684 0.0643586 0.995906)
(0 0 -1)
(0.0641361 0.0660677 0.995752)
(0.303808 0.167179 -0.937951)
(0.0523455 0.0534994 0.997195)
(0.102537 0.0698304 0.992275)
(-0.0630923 -0.0466756 -0.996916)
(0.103175 0.0698387 0.992208)
(0.0451345 0.194701 0.979824)
(0.0283283 -0.133776 -0.990607)
(0.0512269 0.200959 0.978259)
(0.0543163 0.206069 0.977029)
(-0.0423055 -0.193175 -0.980252)
(-0.423608 -0.343935 0.838012)
(-0.657979 -0.745138 -0.108782)
(0.0546775 0.206433 0.976932)
(0.0540268 0.206171 0.977023)
(0.745531 0.583206 0.322574)
(0.048007 0.0162832 -0.998714)
(-0.863767 -0.498271 -0.0750484)
(0.00773204 0.00634812 0.99995)
(0.0160779 0.0122141 0.999796)
(0 0 -1)
(-0.796789 -0.604029 -0.0166006)
(0.865463 0.500878 0.00975222)
(-0.50915 0.860353 0.0236452)
(-0.524726 0.846717 0.0879363)
(-0.258703 -0.301364 -0.917743)
(-0.48162 -0.134915 0.865933)
(-0.0716356 0.132368 0.988609)
(-1 0 0)
(0.0998794 0.0551835 -0.993468)
(-0.0774576 0 0.996996)
(0.0630137 0.00830822 -0.997978)
(0.861379 0.505417 0.0507844)
(-0.0851795 -0.207531 -0.974513)
(-0.752347 -0.601074 0.269599)
(-0.330862 0.375997 -0.865538)
(-0.0914179 -0.0235774 0.995533)
(-0 -0 -1)
(-0.0875516 -0.0225921 0.995904)
(0 0 -1)
(-0.089027 -0.0223383 0.995779)
(-0.816551 -0.4476 -0.364553)
(-0.0722527 -0.0183867 0.997217)
(-0.112859 -0.0549518 0.99209)
(0.0909978 0.0424415 -0.994946)
(-0.112986 -0.0551639 0.992064)
(-0.0999448 -0.0476643 0.993851)
(0 0 -1)
(-0.200202 0.0559268 0.978157)
(0.0919563 -0.0949169 -0.991229)
(-0.19124 0.0585202 0.979797)
(-0.203649 0.0566728 0.977402)
(0.0908372 -0.0821743 -0.99247)
(0.071153 0.117077 0.990571)
(-0.60793 -0.241331 0.756426)
(-0.0501986 -0.0390296 -0.997976)
(-0.210522 -0.151934 -0.96571)
(-0.440305 -0.195891 0.876218)
(-0.225413 -0.0924271 -0.969869)
(-0.869262 -0.493881 0.0215702)
(-0.0223706 0.14778 0.988767)
(-0.867004 -0.498037 0.0162098)
(0.0946632 0.212686 0.972524)
(-0.865945 -0.499087 0.0324392)
(-0.0187208 -0.00785266 0.999794)
(-0 -0 -1)
(0.0804416 0.0460494 -0.995695)
(-0.00352241 -0.00152428 0.999993)
(0.499872 0.147737 -0.853406)
(-0.0668956 0.125365 0.989853)
(-0.0704449 0.119771 0.990299)
(0.523601 0.164117 -0.836007)
(-0.0743704 0.127836 0.989003)
(0.549733 0.18267 -0.815123)
(-0.0729118 0.124971 0.989478)
(-0.990393 0.121385 -0.0662367)
(0.299858 0.95374 -0.0215572)
(-0.22086 0.369625 0.902551)
(-0.149806 -0.481504 -0.863546)
(-0.206133 0.259018 0.94362)
(0.946699 0.289272 0.141711)
(7.23312e-14 2.21015e-14 -1)
(0.954092 0.223125 0.199809)
(9.9683e-15 7.58665e-16 -1)
(0.950376 0.230998 0.20839)
(1.07718e-14 1.81222e-15 -1)
(0.944023 0.220126 0.245691)
(7.1233e-15 1.61863e-15 -1)
(0.948826 0.212312 0.233777)
(6.64115e-15 1.18911e-15 -1)
(0.964503 0.250688 0.0830075)
(-3.53889e-15 -3.00157e-15 -1)
(0.96301 0.265758 0.0445431)
(3.16243e-15 -1.0029e-16 -1)
(0.961833 0.265887 0.0646562)
(2.68369e-15 -8.53208e-16 -1)
(0.960691 0.276793 0.0214062)
(6.65517e-15 1.55837e-15 -1)
(0.957347 0.277608 0.0801308)
(7.16119e-15 1.98815e-15 -1)
(0.941301 0.277876 0.191667)
(1.40094e-14 4.12325e-15 -1)
(0.960933 0.25496 0.107714)
(3.91853e-15 3.32357e-15 -1)
(0.959892 0.249602 0.127695)
(5.84095e-15 2.89782e-15 -1)
(0.958136 0.233331 0.165926)
(1.77623e-14 5.50824e-15 -1)
(0.959558 0.242316 0.143287)
(4.97815e-15 2.26625e-15 -1)
(0.929188 0.203556 0.308503)
(7.20938e-13 1.59056e-13 -1)
(0.93226 0.204233 0.298631)
(1.1481e-14 2.3906e-15 -1)
(0.941594 0.206475 0.266024)
(4.49749e-15 6.12093e-16 -1)
(0.937422 0.205364 0.281187)
(4.04732e-15 2.63705e-16 -1)
(0.870628 0.185636 0.455573)
(1.24337e-13 -4.84374e-14 -1)
(0.881363 0.18161 0.436139)
(9.87878e-14 -1.44652e-13 -1)
(0.876384 0.180581 0.446476)
(9.87944e-14 -1.44647e-13 -1)
(0.88879 0.189509 0.417299)
(5.09599e-13 3.37096e-14 -1)
(0.890558 0.183502 0.416213)
(6.9206e-13 2.17602e-13 -1)
(0.908118 0.193768 0.37118)
(9.40913e-13 3.65769e-13 -1)
(0.901445 0.185745 0.391018)
(6.83289e-13 3.05798e-13 -1)
(0.910756 0.194222 0.364418)
(1.37967e-12 3.69276e-13 -1)
(0.570297 -0 0.821438)
(1.85214e-13 0 -1)
(0.796813 0.161865 0.582142)
(-5.51114e-16 -6.21587e-16 -1)